* 
* Copyright 2022 by Artisan Components, Inc.
* This file has been provided pursuant to a License Agreement
* containing restrictions on its use.  This file contains valuable
* trade secrets and proprietary information of Artisan Components,
* Inc. and is protected by law.
* 
* Generated by bif2cdl v3.4.15
* Version: r0p0-00eac0
* Name: sram_sp_hdc_svt_rvt_hvt Compiler|TSMC cln65gplus 65nm Process, 0.525um2 Bitcell
* Comment: 
* Configuration:  -instname sram512 -words 512 -bits 32 -frequency \
* Configuration: 120 -mux 16 -pipeline off -write_mask on -wp_size \
* Configuration: 8 -write_thru on -top_layer "m5-m9" -power_type ot\
* Configuration: c -redundancy off -rcols 2 -rrows 2 -bmux off -ser\
* Configuration:  none -back_biasing off -power_gating off -retenti\
* Configuration: on on -ema on -atf off -cust_comment "" -bus_notat\
* Configuration: ion on -left_bus_delim "[" -right_bus_delim "]" -p\
* Configuration: wr_gnd_rename "VDDPE:VDDPE,VDDCE:VDDCE,VSSE:VSSE" \
* Configuration: -prefix "" -name_case upper -check_instname off -d\
* Configuration: iodes on -drive 6 -dnw off -asvm on -corners tt_1p\
* Configuration: 00v_1p00v_25c,ss_0p90v_0p90v_m40c,ss_0p90v_0p90v_1\
* Configuration: 25c,ff_1p10v_1p10v_125c,ff_1p10v_1p10v_0c,ff_1p10v\
* Configuration: _1p10v_m40c
* Codefile: 
* 
*
** begin lvs.header
** $Revision: 1.1 $
** end lvs.header
*.BIPOLAR
*.DIOAREA
*.DIOPERI
*
****
.SUBCKT sram512FPIO8 BWEI BWEN CREN D DNI Q Q_ RET RETN_TERM TIEHIGH TIELOW
+  VSSE VDDPE VDDCE
** sram512FPIO8: 11 flat devices **
D10 VSSE Q NDIO 1.024e-07U 1.28U $name=/D4
D7 VSSE BWEN NDIO 1.024e-07U 1.28U $name=/D7
D8 VSSE D NDIO 1.024e-07U 1.28U $name=/D6
D9 VSSE CREN NDIO 1.024e-07U 1.28U $name=/D5
M0 Q Q_ VSSE VSSE NCH W=2.8U L=0.06U M=1 $name=/qdrv/N00
M1 VDDPE Q_ Q VDDCE PCH W=4.14U L=0.06U M=1 $name=/qdrv/P00
M2 Q RET VSSE VSSE NCH_HVT W=0.15U L=0.06U M=1 $name=/N15/N00
M3 DNI D VSSE VSSE NCH_HVT W=0.15U L=0.06U M=1 $name=/I238/N00
M4 VDDPE D DNI VDDCE PCH_HVT W=0.15U L=0.06U M=1 $name=/I238/P00
M5 BWEI BWEN VSSE VSSE NCH_HVT W=0.25U L=0.06U M=1 $name=/I237/N00
M6 VDDPE BWEN BWEI VDDCE PCH_HVT W=0.5U L=0.06U M=1 $name=/I237/P00
.ENDS sram512FPIO8
****
.SUBCKT sram512FLPIO8 BWEN CREN TIEHIGH TIELOW VSSE VDDPE VDDCE
** sram512FLPIO8: 1 flat devices **
D0 VSSE CREN NDIO 1.024e-07U 1.28U $name=/D4
.ENDS sram512FLPIO8
****
.SUBCKT sram512FPIO16HP BWEI BWEN D DNI Q Q_ RET RETN_TERM TIEHIGH TIELOW VSSE
+  VDDPE VDDCE
** sram512FPIO16HP: 12 flat devices **
XI0 BWEI BWEN TIEHIGH D DNI Q Q_ RET RETN_TERM TIEHIGH TIELOW VSSE VDDPE VDDCE
+  sram512FPIO8
XI1 BWEN TIEHIGH TIEHIGH TIELOW VSSE VDDPE VDDCE sram512FLPIO8
.ENDS sram512FPIO16HP
****
.SUBCKT sram512FPIO8RR16B8 BWEI_0 BWEI_1 BWEI_2 BWEI_3 BWEI_4 BWEI_5 BWEI_6
+  BWEI_7 BWEI_8 BWEI_9 BWEI_10 BWEI_11 BWEI_12 BWEI_13 BWEI_14 BWEI_15 BWEN_0
+  BWEN_1 CREN DNI_0 DNI_1 DNI_2 DNI_3 DNI_4 DNI_5 DNI_6 DNI_7 DNI_8 DNI_9
+  DNI_10 DNI_11 DNI_12 DNI_13 DNI_14 DNI_15 D_0 D_1 D_2 D_3 D_4 D_5 D_6 D_7
+  D_8 D_9 D_10 D_11 D_12 D_13 D_14 D_15 Q_0 Q_1 Q_2 Q_3 Q_4 Q_5 Q_6 Q_7 Q_8
+  Q_9 Q_10 Q_11 Q_12 Q_13 Q_14 Q_15 Q__0 Q__1 Q__2 Q__3 Q__4 Q__5 Q__6 Q__7
+  Q__8 Q__9 Q__10 Q__11 Q__12 Q__13 Q__14 Q__15 RETN_TERM_0 RETN_TERM_1
+  RETN_TERM_2 RETN_TERM_3 RETN_TERM_4 RETN_TERM_5 RETN_TERM_6 RETN_TERM_7
+  RETN_TERM_8 RETN_TERM_9 RETN_TERM_10 RETN_TERM_11 RETN_TERM_12 RETN_TERM_13
+  RETN_TERM_14 RETN_TERM_15 RET_0 RET_1 RET_2 RET_3 RET_4 RET_5 RET_6 RET_7
+  RET_8 RET_9 RET_10 RET_11 RET_12 RET_13 RET_14 RET_15 TIELOW VSSE VDDPE
+  VDDCE
** sram512FPIO8RR16B8: 192 flat devices **
XRIGHTIO0 BWEI_0 BWEN_0 D_0 DNI_0 Q_0 Q__0 RET_0 RETN_TERM_0 CREN TIELOW VSSE
+  VDDPE VDDCE sram512FPIO16HP
XRIGHTIO1 BWEI_1 BWEN_0 D_1 DNI_1 Q_1 Q__1 RET_1 RETN_TERM_1 CREN TIELOW VSSE
+  VDDPE VDDCE sram512FPIO16HP
XRIGHTIO10 BWEI_10 BWEN_1 D_10 DNI_10 Q_10 Q__10 RET_10 RETN_TERM_10 CREN
+  TIELOW VSSE VDDPE VDDCE sram512FPIO16HP
XRIGHTIO11 BWEI_11 BWEN_1 D_11 DNI_11 Q_11 Q__11 RET_11 RETN_TERM_11 CREN
+  TIELOW VSSE VDDPE VDDCE sram512FPIO16HP
XRIGHTIO12 BWEI_12 BWEN_1 D_12 DNI_12 Q_12 Q__12 RET_12 RETN_TERM_12 CREN
+  TIELOW VSSE VDDPE VDDCE sram512FPIO16HP
XRIGHTIO13 BWEI_13 BWEN_1 D_13 DNI_13 Q_13 Q__13 RET_13 RETN_TERM_13 CREN
+  TIELOW VSSE VDDPE VDDCE sram512FPIO16HP
XRIGHTIO14 BWEI_14 BWEN_1 D_14 DNI_14 Q_14 Q__14 RET_14 RETN_TERM_14 CREN
+  TIELOW VSSE VDDPE VDDCE sram512FPIO16HP
XRIGHTIO2 BWEI_2 BWEN_0 D_2 DNI_2 Q_2 Q__2 RET_2 RETN_TERM_2 CREN TIELOW VSSE
+  VDDPE VDDCE sram512FPIO16HP
XRIGHTIO3 BWEI_3 BWEN_0 D_3 DNI_3 Q_3 Q__3 RET_3 RETN_TERM_3 CREN TIELOW VSSE
+  VDDPE VDDCE sram512FPIO16HP
XRIGHTIO4 BWEI_4 BWEN_0 D_4 DNI_4 Q_4 Q__4 RET_4 RETN_TERM_4 CREN TIELOW VSSE
+  VDDPE VDDCE sram512FPIO16HP
XRIGHTIO5 BWEI_5 BWEN_0 D_5 DNI_5 Q_5 Q__5 RET_5 RETN_TERM_5 CREN TIELOW VSSE
+  VDDPE VDDCE sram512FPIO16HP
XRIGHTIO6 BWEI_6 BWEN_0 D_6 DNI_6 Q_6 Q__6 RET_6 RETN_TERM_6 CREN TIELOW VSSE
+  VDDPE VDDCE sram512FPIO16HP
XRIGHTIO7 BWEI_7 BWEN_0 D_7 DNI_7 Q_7 Q__7 RET_7 RETN_TERM_7 CREN TIELOW VSSE
+  VDDPE VDDCE sram512FPIO16HP
XRIGHTIO8 BWEI_8 BWEN_1 D_8 DNI_8 Q_8 Q__8 RET_8 RETN_TERM_8 CREN TIELOW VSSE
+  VDDPE VDDCE sram512FPIO16HP
XRIGHTIO9 BWEI_9 BWEN_1 D_9 DNI_9 Q_9 Q__9 RET_9 RETN_TERM_9 CREN TIELOW VSSE
+  VDDPE VDDCE sram512FPIO16HP
XRIGHTIOEXT15 BWEI_15 BWEN_1 D_15 DNI_15 Q_15 Q__15 RET_15 RETN_TERM_15 CREN
+  TIELOW VSSE VDDPE VDDCE sram512FPIO16HP
.ENDS sram512FPIO8RR16B8
****
.SUBCKT sram512FPAL_CTRL AI0 AI0N AI1 AI1N AI2 AI2N AI3 AI3N AI4 AI4N AI5 AI5N
+  AI6 AI6N AI7 AI7N AI8 AI8N AI9 AI9N AI10 AI10N AI11 AI11N AI12 AI12N AI13
+  AI13N BWEN CEI CEN CLK EMA0 EMA1 EMA2 IRET IRETN RDT RETN STOV TIEHIGH
+  TIELOW WBT WEI WEN VSSE VDDPE VDDCE
** sram512FPAL_CTRL: 54 flat devices **
D10 VSSE CLK NDIO 1.024e-07U 1.28U $name=/I2449/D1
D11 VSSE CEN NDIO 1.024e-07U 1.28U $name=/I2449/D0
D4 VSSE STOV NDIO 1.024e-07U 1.28U $name=/I2449/D7
D40 VSSE AI5 NDIO 1.024e-07U 1.28U $name=/I2450/D9
D41 VSSE AI4 NDIO 1.024e-07U 1.28U $name=/I2450/D8
D42 VSSE AI6 NDIO 1.024e-07U 1.28U $name=/I2450/D7
D43 VSSE AI7 NDIO 1.024e-07U 1.28U $name=/I2450/D6
D44 VSSE AI9 NDIO 1.024e-07U 1.28U $name=/I2450/D5
D45 VSSE AI8 NDIO 1.024e-07U 1.28U $name=/I2450/D4
D46 VSSE AI10 NDIO 1.024e-07U 1.28U $name=/I2450/D3
D47 VSSE AI11 NDIO 1.024e-07U 1.28U $name=/I2450/D2
D48 VSSE AI1 NDIO 1.024e-07U 1.28U $name=/I2450/D13
D49 VSSE AI0 NDIO 1.024e-07U 1.28U $name=/I2450/D12
D5 VSSE EMA0 NDIO 1.024e-07U 1.28U $name=/I2449/D6
D50 VSSE AI2 NDIO 1.024e-07U 1.28U $name=/I2450/D11
D51 VSSE AI3 NDIO 1.024e-07U 1.28U $name=/I2450/D10
D52 VSSE AI12 NDIO 1.024e-07U 1.28U $name=/I2450/D1
D53 VSSE AI13 NDIO 1.024e-07U 1.28U $name=/I2450/D0
D6 VSSE RETN NDIO 1.024e-07U 1.28U $name=/I2449/D3
D7 VSSE WEN NDIO 1.024e-07U 1.28U $name=/I2449/D2
D8 VSSE WBT NDIO 1.024e-07U 1.28U $name=/I2449/D12
D9 VSSE RDT NDIO 1.024e-07U 1.28U $name=/I2449/D11
M0 WEI WEN VSSE VSSE NCH W=1.68U L=0.06U M=1 $name=/I2449/tnorwece/N00
M1 VDDPE WEN WEI VDDCE PCH W=2.3U L=0.06U M=1 $name=/I2449/tnorwece/P00
M12 AI7N AI7 VSSE VSSE NCH W=1.12U L=0.06U M=1 $name=/I2450/I9/N00
M13 VDDPE AI7 AI7N VDDCE PCH W=2.24U L=0.06U M=1 $name=/I2450/I9/P00
M14 AI6N AI6 VSSE VSSE NCH W=1.12U L=0.06U M=1 $name=/I2450/I8/N00
M15 VDDPE AI6 AI6N VDDCE PCH W=2.24U L=0.06U M=1 $name=/I2450/I8/P00
M16 AI5N AI5 VSSE VSSE NCH W=1.12U L=0.06U M=1 $name=/I2450/I7/N00
M17 VDDPE AI5 AI5N VDDCE PCH W=2.24U L=0.06U M=1 $name=/I2450/I7/P00
M18 AI0N AI0 VSSE VSSE NCH W=1.12U L=0.06U M=1 $name=/I2450/I60/N00
M19 VDDPE AI0 AI0N VDDCE PCH W=2.24U L=0.06U M=1 $name=/I2450/I60/P00
M2 CEI CEN VSSE VSSE NCH W=0.15U L=0.06U M=1 $name=/I2449/tceninv/N00
M20 AI2N AI2 VSSE VSSE NCH W=1.12U L=0.06U M=1 $name=/I2450/I4/N00
M21 VDDPE AI2 AI2N VDDCE PCH W=2.24U L=0.06U M=1 $name=/I2450/I4/P00
M22 AI1N AI1 VSSE VSSE NCH W=1.12U L=0.06U M=1 $name=/I2450/I3/N00
M23 VDDPE AI1 AI1N VDDCE PCH W=2.24U L=0.06U M=1 $name=/I2450/I3/P00
M24 AI13N AI13 VSSE VSSE NCH W=1.12U L=0.06U M=1 $name=/I2450/I15/N00
M25 VDDPE AI13 AI13N VDDCE PCH W=2.24U L=0.06U M=1 $name=/I2450/I15/P00
M26 AI12N AI12 VSSE VSSE NCH W=1.12U L=0.06U M=1 $name=/I2450/I14/N00
M27 VDDPE AI12 AI12N VDDCE PCH W=2.24U L=0.06U M=1 $name=/I2450/I14/P00
M28 AI11N AI11 VSSE VSSE NCH W=1.12U L=0.06U M=1 $name=/I2450/I13/N00
M29 VDDPE AI11 AI11N VDDCE PCH W=2.24U L=0.06U M=1 $name=/I2450/I13/P00
M3 VDDPE CEN CEI VDDCE PCH W=0.15U L=0.06U M=1 $name=/I2449/tceninv/P00
M30 AI10N AI10 VSSE VSSE NCH W=1.12U L=0.06U M=1 $name=/I2450/I12/N00
M31 VDDPE AI10 AI10N VDDCE PCH W=2.24U L=0.06U M=1 $name=/I2450/I12/P00
M32 AI9N AI9 VSSE VSSE NCH W=1.12U L=0.06U M=1 $name=/I2450/I11/N00
M33 VDDPE AI9 AI9N VDDCE PCH W=2.24U L=0.06U M=1 $name=/I2450/I11/P00
M34 AI8N AI8 VSSE VSSE NCH W=1.12U L=0.06U M=1 $name=/I2450/I10/N00
M35 VDDPE AI8 AI8N VDDCE PCH W=2.24U L=0.06U M=1 $name=/I2450/I10/P00
M36 AI3N AI3 VSSE VSSE NCH W=1.12U L=0.06U M=1 $name=/I2450/I1/N00
M37 VDDPE AI3 AI3N VDDCE PCH W=2.24U L=0.06U M=1 $name=/I2450/I1/P00
M38 AI4N AI4 VSSE VSSE NCH W=1.12U L=0.06U M=1 $name=/I2450/I0/N00
M39 VDDPE AI4 AI4N VDDCE PCH W=2.24U L=0.06U M=1 $name=/I2450/I0/P00
.ENDS sram512FPAL_CTRL
****
.SUBCKT sram512FPBCTRL32M16 AI0 AI0N AI1 AI1N AI2 AI2N AI3 AI3N AI4N AI5 AI5N
+  AI6 AI6N AI7 AI7N AI8 AI8N AI9 AI9N AI10N AI11N AI12N AI13N CEI CEN CLK
+  EMA0 EMA1 EMA2 IRET IRETN RETN TIEHIGH TIELOW WEI WEN VSSE VDDPE VDDCE
** sram512FPBCTRL32M16: 54 flat devices **
XINSTCTRL AI0 AI0N AI1 AI1N AI2 AI2N AI3 AI3N TIELOW AI4N AI5 AI5N AI6 AI6N
+  AI7 AI7N AI8 AI8N AI9 AI9N TIELOW AI10N TIELOW AI11N TIELOW AI12N TIELOW
+  AI13N TIELOW CEI CEN CLK EMA0 EMA1 EMA2 IRET IRETN TIELOW RETN TIELOW
+  TIEHIGH TIELOW TIELOW WEI WEN VSSE VDDPE VDDCE sram512FPAL_CTRL
.ENDS sram512FPBCTRL32M16
****
.SUBCKT sram512FPIO8RL16B8 BWEI_0 BWEI_1 BWEI_2 BWEI_3 BWEI_4 BWEI_5 BWEI_6
+  BWEI_7 BWEI_8 BWEI_9 BWEI_10 BWEI_11 BWEI_12 BWEI_13 BWEI_14 BWEI_15 BWEN_0
+  BWEN_1 CREN DNI_0 DNI_1 DNI_2 DNI_3 DNI_4 DNI_5 DNI_6 DNI_7 DNI_8 DNI_9
+  DNI_10 DNI_11 DNI_12 DNI_13 DNI_14 DNI_15 D_0 D_1 D_2 D_3 D_4 D_5 D_6 D_7
+  D_8 D_9 D_10 D_11 D_12 D_13 D_14 D_15 Q_0 Q_1 Q_2 Q_3 Q_4 Q_5 Q_6 Q_7 Q_8
+  Q_9 Q_10 Q_11 Q_12 Q_13 Q_14 Q_15 Q__0 Q__1 Q__2 Q__3 Q__4 Q__5 Q__6 Q__7
+  Q__8 Q__9 Q__10 Q__11 Q__12 Q__13 Q__14 Q__15 RETN_TERM_0 RETN_TERM_1
+  RETN_TERM_2 RETN_TERM_3 RETN_TERM_4 RETN_TERM_5 RETN_TERM_6 RETN_TERM_7
+  RETN_TERM_8 RETN_TERM_9 RETN_TERM_10 RETN_TERM_11 RETN_TERM_12 RETN_TERM_13
+  RETN_TERM_14 RETN_TERM_15 RET_0 RET_1 RET_2 RET_3 RET_4 RET_5 RET_6 RET_7
+  RET_8 RET_9 RET_10 RET_11 RET_12 RET_13 RET_14 RET_15 TIELOW VSSE VDDPE
+  VDDCE
** sram512FPIO8RL16B8: 192 flat devices **
XLEFTIO0 BWEI_0 BWEN_0 D_0 DNI_0 Q_0 Q__0 RET_0 RETN_TERM_0 CREN TIELOW VSSE
+  VDDPE VDDCE sram512FPIO16HP
XLEFTIO1 BWEI_1 BWEN_0 D_1 DNI_1 Q_1 Q__1 RET_1 RETN_TERM_1 CREN TIELOW VSSE
+  VDDPE VDDCE sram512FPIO16HP
XLEFTIO10 BWEI_10 BWEN_1 D_10 DNI_10 Q_10 Q__10 RET_10 RETN_TERM_10 CREN
+  TIELOW VSSE VDDPE VDDCE sram512FPIO16HP
XLEFTIO11 BWEI_11 BWEN_1 D_11 DNI_11 Q_11 Q__11 RET_11 RETN_TERM_11 CREN
+  TIELOW VSSE VDDPE VDDCE sram512FPIO16HP
XLEFTIO12 BWEI_12 BWEN_1 D_12 DNI_12 Q_12 Q__12 RET_12 RETN_TERM_12 CREN
+  TIELOW VSSE VDDPE VDDCE sram512FPIO16HP
XLEFTIO13 BWEI_13 BWEN_1 D_13 DNI_13 Q_13 Q__13 RET_13 RETN_TERM_13 CREN
+  TIELOW VSSE VDDPE VDDCE sram512FPIO16HP
XLEFTIO14 BWEI_14 BWEN_1 D_14 DNI_14 Q_14 Q__14 RET_14 RETN_TERM_14 CREN
+  TIELOW VSSE VDDPE VDDCE sram512FPIO16HP
XLEFTIO2 BWEI_2 BWEN_0 D_2 DNI_2 Q_2 Q__2 RET_2 RETN_TERM_2 CREN TIELOW VSSE
+  VDDPE VDDCE sram512FPIO16HP
XLEFTIO3 BWEI_3 BWEN_0 D_3 DNI_3 Q_3 Q__3 RET_3 RETN_TERM_3 CREN TIELOW VSSE
+  VDDPE VDDCE sram512FPIO16HP
XLEFTIO4 BWEI_4 BWEN_0 D_4 DNI_4 Q_4 Q__4 RET_4 RETN_TERM_4 CREN TIELOW VSSE
+  VDDPE VDDCE sram512FPIO16HP
XLEFTIO5 BWEI_5 BWEN_0 D_5 DNI_5 Q_5 Q__5 RET_5 RETN_TERM_5 CREN TIELOW VSSE
+  VDDPE VDDCE sram512FPIO16HP
XLEFTIO6 BWEI_6 BWEN_0 D_6 DNI_6 Q_6 Q__6 RET_6 RETN_TERM_6 CREN TIELOW VSSE
+  VDDPE VDDCE sram512FPIO16HP
XLEFTIO7 BWEI_7 BWEN_0 D_7 DNI_7 Q_7 Q__7 RET_7 RETN_TERM_7 CREN TIELOW VSSE
+  VDDPE VDDCE sram512FPIO16HP
XLEFTIO8 BWEI_8 BWEN_1 D_8 DNI_8 Q_8 Q__8 RET_8 RETN_TERM_8 CREN TIELOW VSSE
+  VDDPE VDDCE sram512FPIO16HP
XLEFTIO9 BWEI_9 BWEN_1 D_9 DNI_9 Q_9 Q__9 RET_9 RETN_TERM_9 CREN TIELOW VSSE
+  VDDPE VDDCE sram512FPIO16HP
XLEFTIOEXT15 BWEI_15 BWEN_1 D_15 DNI_15 Q_15 Q__15 RET_15 RETN_TERM_15 CREN
+  TIELOW VSSE VDDPE VDDCE sram512FPIO16HP
.ENDS sram512FPIO8RL16B8
****
.SUBCKT sram512BR32FPIO8B8 AI0 AI0N AI1 AI1N AI2 AI2N AI3 AI3N AI4N AI5 AI5N
+  AI6 AI6N AI7 AI7N AI8 AI8N AI9 AI9N AI10N AI11N AI12N AI13N BWEI_0 BWEI_1
+  BWEI_2 BWEI_3 BWEI_4 BWEI_5 BWEI_6 BWEI_7 BWEI_8 BWEI_9 BWEI_10 BWEI_11
+  BWEI_12 BWEI_13 BWEI_14 BWEI_15 BWEI_16 BWEI_17 BWEI_18 BWEI_19 BWEI_20
+  BWEI_21 BWEI_22 BWEI_23 BWEI_24 BWEI_25 BWEI_26 BWEI_27 BWEI_28 BWEI_29
+  BWEI_30 BWEI_31 BWEN_0 BWEN_1 BWEN_2 BWEN_3 CEI CEN CLK CREN DNI_0 DNI_1
+  DNI_2 DNI_3 DNI_4 DNI_5 DNI_6 DNI_7 DNI_8 DNI_9 DNI_10 DNI_11 DNI_12 DNI_13
+  DNI_14 DNI_15 DNI_16 DNI_17 DNI_18 DNI_19 DNI_20 DNI_21 DNI_22 DNI_23
+  DNI_24 DNI_25 DNI_26 DNI_27 DNI_28 DNI_29 DNI_30 DNI_31 D_0 D_1 D_2 D_3 D_4
+  D_5 D_6 D_7 D_8 D_9 D_10 D_11 D_12 D_13 D_14 D_15 D_16 D_17 D_18 D_19 D_20
+  D_21 D_22 D_23 D_24 D_25 D_26 D_27 D_28 D_29 D_30 D_31 EMA0 EMA1 EMA2 IRET
+  IRETN Q_0 Q_1 Q_2 Q_3 Q_4 Q_5 Q_6 Q_7 Q_8 Q_9 Q_10 Q_11 Q_12 Q_13 Q_14 Q_15
+  Q_16 Q_17 Q_18 Q_19 Q_20 Q_21 Q_22 Q_23 Q_24 Q_25 Q_26 Q_27 Q_28 Q_29 Q_30
+  Q_31 Q__0 Q__1 Q__2 Q__3 Q__4 Q__5 Q__6 Q__7 Q__8 Q__9 Q__10 Q__11 Q__12
+  Q__13 Q__14 Q__15 Q__16 Q__17 Q__18 Q__19 Q__20 Q__21 Q__22 Q__23 Q__24
+  Q__25 Q__26 Q__27 Q__28 Q__29 Q__30 Q__31 RETN RETN_TERM_0 RETN_TERM_1
+  RETN_TERM_2 RETN_TERM_3 RETN_TERM_4 RETN_TERM_5 RETN_TERM_6 RETN_TERM_7
+  RETN_TERM_8 RETN_TERM_9 RETN_TERM_10 RETN_TERM_11 RETN_TERM_12 RETN_TERM_13
+  RETN_TERM_14 RETN_TERM_15 RETN_TERM_16 RETN_TERM_17 RETN_TERM_18
+  RETN_TERM_19 RETN_TERM_20 RETN_TERM_21 RETN_TERM_22 RETN_TERM_23
+  RETN_TERM_24 RETN_TERM_25 RETN_TERM_26 RETN_TERM_27 RETN_TERM_28
+  RETN_TERM_29 RETN_TERM_30 RETN_TERM_31 RET_0 RET_1 RET_2 RET_3 RET_4 RET_5
+  RET_6 RET_7 RET_8 RET_9 RET_10 RET_11 RET_12 RET_13 RET_14 RET_15 RET_16
+  RET_17 RET_18 RET_19 RET_20 RET_21 RET_22 RET_23 RET_24 RET_25 RET_26
+  RET_27 RET_28 RET_29 RET_30 RET_31 TIELOW WEI WEN VSSE VDDPE VDDCE
** sram512BR32FPIO8B8: 438 flat devices **
XBOTCTRL AI0 AI0N AI1 AI1N AI2 AI2N AI3 AI3N AI4N AI5 AI5N AI6 AI6N AI7 AI7N
+  AI8 AI8N AI9 AI9N AI10N AI11N AI12N AI13N CEI CEN CLK EMA0 EMA1 EMA2 IRET
+  IRETN RETN CREN TIELOW WEI WEN VSSE VDDPE VDDCE sram512FPBCTRL32M16
XLEFTIOROW BWEI_15 BWEI_14 BWEI_13 BWEI_12 BWEI_11 BWEI_10 BWEI_9 BWEI_8
+  BWEI_7 BWEI_6 BWEI_5 BWEI_4 BWEI_3 BWEI_2 BWEI_1 BWEI_0 BWEN_1 BWEN_0 CREN
+  DNI_15 DNI_14 DNI_13 DNI_12 DNI_11 DNI_10 DNI_9 DNI_8 DNI_7 DNI_6 DNI_5
+  DNI_4 DNI_3 DNI_2 DNI_1 DNI_0 D_15 D_14 D_13 D_12 D_11 D_10 D_9 D_8 D_7 D_6
+  D_5 D_4 D_3 D_2 D_1 D_0 Q_15 Q_14 Q_13 Q_12 Q_11 Q_10 Q_9 Q_8 Q_7 Q_6 Q_5
+  Q_4 Q_3 Q_2 Q_1 Q_0 Q__15 Q__14 Q__13 Q__12 Q__11 Q__10 Q__9 Q__8 Q__7 Q__6
+  Q__5 Q__4 Q__3 Q__2 Q__1 Q__0 RETN_TERM_15 RETN_TERM_14 RETN_TERM_13
+  RETN_TERM_12 RETN_TERM_11 RETN_TERM_10 RETN_TERM_9 RETN_TERM_8 RETN_TERM_7
+  RETN_TERM_6 RETN_TERM_5 RETN_TERM_4 RETN_TERM_3 RETN_TERM_2 RETN_TERM_1
+  RETN_TERM_0 RET_15 RET_14 RET_13 RET_12 RET_11 RET_10 RET_9 RET_8 RET_7
+  RET_6 RET_5 RET_4 RET_3 RET_2 RET_1 RET_0 TIELOW VSSE VDDPE VDDCE
+  sram512FPIO8RL16B8
XRIGHTIOROW BWEI_16 BWEI_17 BWEI_18 BWEI_19 BWEI_20 BWEI_21 BWEI_22 BWEI_23
+  BWEI_24 BWEI_25 BWEI_26 BWEI_27 BWEI_28 BWEI_29 BWEI_30 BWEI_31 BWEN_2
+  BWEN_3 CREN DNI_16 DNI_17 DNI_18 DNI_19 DNI_20 DNI_21 DNI_22 DNI_23 DNI_24
+  DNI_25 DNI_26 DNI_27 DNI_28 DNI_29 DNI_30 DNI_31 D_16 D_17 D_18 D_19 D_20
+  D_21 D_22 D_23 D_24 D_25 D_26 D_27 D_28 D_29 D_30 D_31 Q_16 Q_17 Q_18 Q_19
+  Q_20 Q_21 Q_22 Q_23 Q_24 Q_25 Q_26 Q_27 Q_28 Q_29 Q_30 Q_31 Q__16 Q__17
+  Q__18 Q__19 Q__20 Q__21 Q__22 Q__23 Q__24 Q__25 Q__26 Q__27 Q__28 Q__29
+  Q__30 Q__31 RETN_TERM_16 RETN_TERM_17 RETN_TERM_18 RETN_TERM_19
+  RETN_TERM_20 RETN_TERM_21 RETN_TERM_22 RETN_TERM_23 RETN_TERM_24
+  RETN_TERM_25 RETN_TERM_26 RETN_TERM_27 RETN_TERM_28 RETN_TERM_29
+  RETN_TERM_30 RETN_TERM_31 RET_16 RET_17 RET_18 RET_19 RET_20 RET_21 RET_22
+  RET_23 RET_24 RET_25 RET_26 RET_27 RET_28 RET_29 RET_30 RET_31 TIELOW VSSE
+  VDDPE VDDCE sram512FPIO8RR16B8
.ENDS sram512BR32FPIO8B8
****
.SUBCKT sram512IO8_1B BWEI CE_WE CREN CRENA CRENB CRENI DNI FIOGTP GDL GDLA
+  GDLA_ GDLB GDLB_ GDLI GDLI_ GDL_ IODL IODL_ IOGTP IRET IRETN Q_ RDEN
+  TIEHIGH TIELOW WE WEA WEB WEI YI YP1_0 YP1_1 YP1_2 YP1_3 YSN YSNA YSNB YSNI
+  VSSE VDDPE VDDCE
** sram512IO8_1B: 172 flat devices **
M0 NET303 NET69 VSSE VSSE NCH W=0.2U L=0.06U M=1 $name=/tiginvpredrv/N10
M1 NET303 RDEN VSSE VSSE NCH W=0.2U L=0.06U M=1 $name=/tiginvpredrv/N00
M10 VDDPE NET343 NET207 VDDCE PCH W=0.83U L=0.06U M=1 $name=/tiogdlprech/P10
M100 NET280 NET138 VSSE VSSE NCH W=0.4U L=0.06U M=1 $name=/N43/N00
M101 NET114 NET92 WE VSSE NCH W=1U L=0.06U M=1 $name=/N4/N00
M102 VSSE NET280 IODL_ VSSE NCH W=3U L=0.06U M=1 $name=/N38/N00
M103 GDL NET267 IODL VSSE NCH W=3U L=0.06U M=1 $name=/N3/N00
M104 IODL NET270 GDLI VSSE NCH W=3U L=0.06U M=1 $name=/N2/N00
M105 NET275 QIE_N VSSE VSSE NCH W=2.17U L=0.06U M=1 $name=/N17/N00
M106 IODW WE NET277 VSSE NCH W=1.5U L=0.06U M=1 $name=/N12/N00
M107 IODW WE NET280 VSSE NCH W=1.5U L=0.06U M=1 $name=/N11/N00
M108 IODL_ NET267 GDL_ VSSE NCH W=3U L=0.06U M=1 $name=/N10/N00
M109 IODL_ NET270 GDLI_ VSSE NCH W=3U L=0.06U M=1 $name=/N0/N00
M11 VDDPE IOGTPD NET207 VDDCE PCH W=0.83U L=0.06U M=1 $name=/tiogdlprech/P00
M110 HNET355 CREN VSSE VSSE NCH_HVT W=0.15U L=0.06U M=1 $name=/I244/N01
M111 NET289 CRENI HNET355 VSSE NCH_HVT W=0.15U L=0.06U M=1 $name=/I244/N00
M112 VDDPE CREN NET289 VDDCE PCH_HVT W=0.15U L=0.06U M=1 $name=/I244/P10
M113 VDDPE CRENI NET289 VDDCE PCH_HVT W=0.15U L=0.06U M=1 $name=/I244/P00
M114 YILOUT NET0351 VSSE VSSE NCH W=0.15U L=0.06U M=1 $name=/I3/N00
M115 VDDPE NET0351 YILOUT VDDCE PCH W=0.3U L=0.06U M=1 $name=/I3/P00
M116 NET0561 YI VSSE VSSE NCH W=0.15U L=0.06U M=1 $name=/I1/N00
M117 VDDPE YI NET0561 VDDCE PCH W=0.15U L=0.06U M=1 $name=/I1/P00
M118 WE WELOUTN VSSE VSSE NCH W=2U L=0.06U M=1 $name=/weidrv/N00
M119 VDDPE WELOUTN WE VDDCE PCH W=4U L=0.06U M=1 $name=/weidrv/P00
M12 HNET127 NET319 VSSE VSSE NCH W=0.75U L=0.06U M=1 $name=/tgtpnd2/N01
M120 NET293 BWEI VSSE VSSE NCH W=0.18U L=0.06U M=1 $name=/tweinv/N00
M121 VDDPE BWEI NET293 VDDCE PCH W=0.33U L=0.06U M=1 $name=/tweinv/P00
M122 NET295 IODL_ VSSE VSSE NCH W=0.36U L=0.06U M=1 $name=/tqbpu2drv/N00
M123 VDDPE IODL_ NET295 VDDCE PCH W=0.7U L=0.06U M=1 $name=/tqbpu2drv/P00
M124 QILAT Q_ VSSE VSSE NCH W=0.24U L=0.06U M=1 $name=/tqbfbinv/N00
M125 VDDPE Q_ QILAT VDDCE PCH W=0.47U L=0.06U M=1 $name=/tqbfbinv/P00
M126 QIE_N QIE_P VSSE VSSE NCH W=0.36U L=0.06U M=1 $name=/tlinv/N00
M127 VDDPE QIE_P QIE_N VDDCE PCH W=0.49U L=0.06U M=1 $name=/tlinv/P00
M128 QIE_P NET303 VSSE VSSE NCH W=0.62U L=0.06U M=1 $name=/tiginv/N00
M129 VDDPE NET303 QIE_P VDDCE PCH W=1.2U L=0.06U M=1 $name=/tiginv/P00
M13 IOGTPD QIE_P HNET127 VSSE NCH W=0.75U L=0.06U M=1 $name=/tgtpnd2/N00
M130 NET307 IOGTPD VSSE VSSE NCH W=0.25U L=0.06U M=1 $name=/tgtpn/N00
M131 VDDPE IOGTPD NET307 VDDCE PCH W=0.56U L=0.06U M=1 $name=/tgtpn/P00
M132 NET342 NET347 VSSE VSSE NCH W=0.18U L=0.06U M=1 $name=/tdinv/N00
M133 VDDPE NET347 NET342 VDDCE PCH W=0.33U L=0.06U M=1 $name=/tdinv/P00
M134 NET311 DNI VSSE VSSE NCH W=0.18U L=0.06U M=1 $name=/tdininv/N00
M135 VDDPE DNI NET311 VDDCE PCH W=0.33U L=0.06U M=1 $name=/tdininv/P00
M136 YSEL YSN VSSE VSSE NCH W=0.6U L=0.06U M=1 $name=/gyselinv/N00
M137 VDDPE YSN YSEL VDDCE PCH W=0.6U L=0.06U M=1 $name=/gyselinv/P00
M138 WELOUTN WELOUT VSSE VSSE NCH W=1U L=0.06U M=1 $name=/gwelat/N00
M139 VDDPE WELOUT WELOUTN VDDCE PCH W=1.4U L=0.06U M=1 $name=/gwelat/P00
M14 VDDPE NET319 IOGTPD VDDCE PCH W=0.74U L=0.06U M=1 $name=/tgtpnd2/P10
M140 WEIN NET60 VSSE VSSE NCH W=0.5U L=0.06U M=1 $name=/gwdly/N00
M141 VDDPE NET60 WEIN VDDCE PCH W=0.82U L=0.06U M=1 $name=/gwdly/P00
M142 NET319 IOGTP VSSE VSSE NCH W=0.15U L=0.06U M=1 $name=/gtp/N00
M143 VDDPE IOGTP NET319 VDDCE PCH W=0.15U L=0.06U M=1 $name=/gtp/P00
M144 NET270 NET78 VSSE VSSE NCH W=0.5U L=0.06U M=1 $name=/gpginv/N00
M145 VDDPE NET78 NET270 VDDCE PCH W=1U L=0.06U M=1 $name=/gpginv/P00
M146 YSN YILOUT VSSE VSSE NCH W=0.5U L=0.06U M=1 $name=/gpgdrv2/N00
M147 VDDPE YILOUT YSN VDDCE PCH W=1U L=0.06U M=1 $name=/gpgdrv2/P00
M148 NET325 NET127 VSSE VSSE NCH W=0.15U L=0.06U M=1 $name=/gpgdrv1/N00
M149 VDDPE NET127 NET325 VDDCE PCH W=0.3U L=0.06U M=1 $name=/gpgdrv1/P00
M15 VDDPE QIE_P IOGTPD VDDCE PCH W=0.74U L=0.06U M=1 $name=/tgtpnd2/P00
M150 NET267 NET75 VSSE VSSE NCH W=0.5U L=0.06U M=1 $name=/gnreg/N00
M151 VDDPE NET75 NET267 VDDCE PCH W=1U L=0.06U M=1 $name=/gnreg/P00
M152 NET138 WE VSSE VSSE NCH W=1.1U L=0.06U M=1 $name=/geninv/N00
M153 VDDPE WE NET138 VDDCE PCH W=2.8U L=0.06U M=1 $name=/geninv/P00
M154 IODW DLOUTN VSSE VSSE NCH W=1U L=0.06U M=1 $name=/gdndrv/N00
M155 VDDPE DLOUTN IODW VDDCE PCH W=2U L=0.06U M=1 $name=/gdndrv/P00
M156 DLOUTN DLOUT VSSE VSSE NCH W=0.8U L=0.06U M=1 $name=/gdlat/N00
M157 VDDPE DLOUT DLOUTN VDDCE PCH W=1.97U L=0.06U M=1 $name=/gdlat/P00
M158 NET335 DLOUTN VSSE VSSE NCH W=0.58U L=0.06U M=1 $name=/gddrvb/N00
M159 VDDPE DLOUTN NET335 VDDCE PCH W=1.14U L=0.06U M=1 $name=/gddrvb/P00
M16 HNET131 IOGTP VSSE VSSE NCH W=0.15U L=0.06U M=1 $name=/tfiogtpnd2/N01
M160 IODW_ NET335 VSSE VSSE NCH W=1U L=0.06U M=1 $name=/gddrv/N00
M161 VDDPE NET335 IODW_ VDDCE PCH W=2U L=0.06U M=1 $name=/gddrv/P00
M162 DIN NET341 VSSE VSSE NCH W=0.5U L=0.06U M=1 $name=/gddly2/N00
M163 VDDPE NET341 DIN VDDCE PCH W=1U L=0.06U M=1 $name=/gddly2/P00
M164 NET341 NET342 VSSE VSSE NCH W=0.18U L=0.06U M=1 $name=/gddly/N00
M165 VDDPE NET342 NET341 VDDCE PCH W=0.33U L=0.06U M=1 $name=/gddly/P00
M166 NET343 FIOGTP VSSE VSSE NCH W=0.15U L=0.06U M=1 $name=/I34/N00
M167 VDDPE FIOGTP NET343 VDDCE PCH W=0.15U L=0.06U M=1 $name=/I34/P00
M168 NET345 NET293 VSSE VSSE NCH W=0.18U L=0.06U M=1 $name=/I12/N00
M169 VDDPE NET293 NET345 VDDCE PCH W=0.33U L=0.06U M=1 $name=/I12/P00
M17 NET69 NET343 HNET131 VSSE NCH W=0.15U L=0.06U M=1 $name=/tfiogtpnd2/N00
M170 NET347 NET311 VSSE VSSE NCH W=0.18U L=0.06U M=1 $name=/I10/N00
M171 VDDPE NET311 NET347 VDDCE PCH W=0.33U L=0.06U M=1 $name=/I10/P00
M18 VDDPE IOGTP NET69 VDDCE PCH W=0.2U L=0.06U M=1 $name=/tfiogtpnd2/P10
M19 VDDPE NET343 NET69 VDDCE PCH W=0.2U L=0.06U M=1 $name=/tfiogtpnd2/P00
M2 VDDPE NET69 HNET112 VDDCE PCH W=0.4U L=0.06U M=1 $name=/tiginvpredrv/P01
M20 HNET135 NET114 VSSE VSSE NCH W=1U L=0.06U M=1 $name=/gweio/N01
M21 NET72 NET325 HNET135 VSSE NCH W=1U L=0.06U M=1 $name=/gweio/N00
M22 VDDPE NET114 NET72 VDDCE PCH W=0.8U L=0.06U M=1 $name=/gweio/P10
M23 VDDPE NET325 NET72 VDDCE PCH W=0.8U L=0.06U M=1 $name=/gweio/P00
M24 HNET139 NET92 VSSE VSSE NCH W=1U L=0.06U M=1 $name=/gpreg/N01
M25 NET75 YSEL HNET139 VSSE NCH W=1U L=0.06U M=1 $name=/gpreg/N00
M26 VDDPE NET92 NET75 VDDCE PCH W=1U L=0.06U M=1 $name=/gpreg/P10
M27 VDDPE YSEL NET75 VDDCE PCH W=1U L=0.06U M=1 $name=/gpreg/P00
M28 HNET143 NET94 VSSE VSSE NCH W=1U L=0.06U M=1 $name=/gpnand/N01
M29 NET78 YSEL HNET143 VSSE NCH W=1U L=0.06U M=1 $name=/gpnand/N00
M3 HNET112 RDEN NET303 VDDCE PCH W=0.4U L=0.06U M=1 $name=/tiginvpredrv/P00
M30 VDDPE NET94 NET78 VDDCE PCH W=1U L=0.06U M=1 $name=/gpnand/P10
M31 VDDPE YSEL NET78 VDDCE PCH W=1U L=0.06U M=1 $name=/gpnand/P00
M32 HNET150 YILOUT VSSE VSSE NCH W=0.15U L=0.06U M=1 $name=/I2/NI00
M33 NET0351 IOGTPD HNET150 VSSE NCH W=0.15U L=0.06U M=1 $name=/I2/NE00
M34 HNET145 NET307 NET0351 VDDCE PCH W=0.15U L=0.06U M=1 $name=/I2/PE00
M35 VDDPE YILOUT HNET145 VDDCE PCH W=0.15U L=0.06U M=1 $name=/I2/PI00
M36 HNET156 WELOUTN VSSE VSSE NCH W=0.15U L=0.06U M=1 $name=/gwelatfb/NI00
M37 WELOUT IOGTPD HNET156 VSSE NCH W=0.15U L=0.06U M=1 $name=/gwelatfb/NE00
M38 HNET151 NET307 WELOUT VDDCE PCH W=0.15U L=0.06U M=1 $name=/gwelatfb/PE00
M39 VDDPE WELOUTN HNET151 VDDCE PCH W=0.15U L=0.06U M=1 $name=/gwelatfb/PI00
M4 HNET119 NET345 VSSE VSSE NCH W=0.25U L=0.06U M=1 $name=/wnand/N01
M40 HNET162 DLOUTN VSSE VSSE NCH W=0.15U L=0.06U M=1 $name=/gdlatfb/NI00
M41 DLOUT IOGTPD HNET162 VSSE NCH W=0.15U L=0.06U M=1 $name=/gdlatfb/NE00
M42 HNET157 NET307 DLOUT VDDCE PCH W=0.15U L=0.06U M=1 $name=/gdlatfb/PE00
M43 VDDPE DLOUTN HNET157 VDDCE PCH W=0.15U L=0.06U M=1 $name=/gdlatfb/PI00
M44 NET92 NET289 VSSE VSSE NCH_HVT W=0.15U L=0.06U M=1 $name=/tcrend/N00
M45 VDDPE NET289 NET92 VDDCE PCH_HVT W=0.15U L=0.06U M=1 $name=/tcrend/P00
M46 NET94 NET92 VSSE VSSE NCH_HVT W=0.15U L=0.06U M=1 $name=/gcrendd/N00
M47 VDDPE NET92 NET94 VDDCE PCH_HVT W=0.3U L=0.06U M=1 $name=/gcrendd/P00
M48 Q_ IRETN VDDPE VDDCE PCH_HVT W=1.06U L=0.06U M=1 $name=/tqbpuretn/P00
M49 NET103 QILAT Q_ VDDCE PCH_HVT W=1.06U L=0.06U M=1 $name=/tqbpu2/P00
M5 NET60 CE_WE HNET119 VSSE NCH W=0.25U L=0.06U M=1 $name=/wnand/N00
M50 VDDPE QIE_N NET103 VDDCE PCH_HVT W=1.06U L=0.06U M=1 $name=/P35/P00
M51 VDDPE NET295 NET103 VDDCE PCH_HVT W=1.06U L=0.06U M=1 $name=/P33/P00
M52 WELOUT IOGTPD WEIN VDDCE PCH W=0.49U L=0.06U M=1 $name=/wpgp/P00
M53 NET113 IODL Q_ VDDCE PCH W=2.13U L=0.06U M=1 $name=/tqbpu/P00
M54 VDDPE NET114 NET149 VDDCE PCH W=1U L=0.06U M=1 $name=/tpswitch/P00
M55 VDDPE NET207 GDLPRE VDDCE PCH W=1.5U L=0.06U M=1 $name=/tppreb/P00
M56 VDDPE NET72 GDLPRE VDDCE PCH W=1.5U L=0.06U M=1 $name=/tpprea/P00
M57 YSN NET94 NET127 VDDCE PCH W=0.2U L=0.06U M=1 $name=/tppg2/P00
M58 YSNI NET92 NET127 VDDCE PCH W=0.2U L=0.06U M=1 $name=/tppg1/P00
M59 NET0351 IOGTPD NET0561 VDDCE PCH W=0.2U L=0.06U M=1 $name=/tpgp2/P00
M6 VDDPE NET345 NET60 VDDCE PCH W=0.25U L=0.06U M=1 $name=/wnand/P10
M60 DLOUT IOGTPD DIN VDDCE PCH W=0.49U L=0.06U M=1 $name=/tpdpass/P00
M61 VDDPE WE NET136 VDDCE PCH W=1U L=0.06U M=1 $name=/tgdlpukp/P00
M62 NET136 NET138 IODW_ VDDCE PCH W=1.5U L=0.06U M=1 $name=/tgdlppgp/P00
M63 VDDPE GDLPRE GDL VDDCE PCH W=3U L=0.06U M=1 $name=/tgdlpch/P00
M64 NET248 NET138 IODW_ VDDCE PCH W=1.5U L=0.06U M=1 $name=/tgdlnpgp/P00
M65 NET149 GDL_ GDL VDDCE PCH W=1U L=0.06U M=1 $name=/tgdlkeeperio/P00
M66 GDL GDLPRE GDL_ VDDCE PCH W=3U L=0.06U M=1 $name=/tgdleq/P00
M67 IODL NET136 VDDPE VDDCE PCH W=5U L=0.06U M=1 $name=/tgdldrvp/P00
M68 NET149 GDL GDL_ VDDCE PCH W=1U L=0.06U M=1 $name=/tgdlbkeeper/P00
M69 NET280 NET138 IODW VDDCE PCH W=1.5U L=0.06U M=1 $name=/P7/P00
M7 VDDPE CE_WE NET60 VDDCE PCH W=0.25U L=0.06U M=1 $name=/wnand/P00
M70 WEI NET92 NET114 VDDCE PCH W=1U L=0.06U M=1 $name=/P6/P00
M71 VDDPE WE NET277 VDDCE PCH W=1U L=0.06U M=1 $name=/P55/P00
M72 WE NET94 NET114 VDDCE PCH W=1U L=0.06U M=1 $name=/P5/P00
M73 IODL_ NET277 VDDPE VDDCE PCH W=5U L=0.06U M=1 $name=/P43/P00
M74 GDL_ NET75 IODL_ VDDCE PCH W=3U L=0.06U M=1 $name=/P4/P00
M75 IODL NET75 GDL VDDCE PCH W=3U L=0.06U M=1 $name=/P3/P00
M76 VDDPE GDLPRE GDL_ VDDCE PCH W=3U L=0.06U M=1 $name=/P2/P00
M77 VDDPE QIE_P NET194 VDDCE PCH W=2.13U L=0.06U M=1 $name=/P18/P00
M78 VDDPE QIE_P NET113 VDDCE PCH W=2.13U L=0.06U M=1 $name=/P13/P00
M79 NET277 NET138 IODW VDDCE PCH W=1.5U L=0.06U M=1 $name=/P12/P00
M8 HNET123 NET343 VSSE VSSE NCH W=0.84U L=0.06U M=1 $name=/tiogdlprech/N01
M80 NET194 IODL Q_ VDDCE PCH W=2.13U L=0.06U M=1 $name=/P11/P00
M81 GDLI NET78 IODL VDDCE PCH W=3U L=0.06U M=1 $name=/P1/P00
M82 GDLI_ NET78 IODL_ VDDCE PCH W=3U L=0.06U M=1 $name=/P0/P00
M83 VSSE IRETN NET220 VSSE NCH_HVT W=1U L=0.06U M=1 $name=/tqbpdretn/N00
M84 Q_ QILAT NET221 VSSE NCH_HVT W=1U L=0.06U M=1 $name=/tqbpd2/N00
M85 NET221 QIE_P NET220 VSSE NCH_HVT W=1U L=0.06U M=1 $name=/N20/N00
M86 NET221 IODL NET220 VSSE NCH_HVT W=1U L=0.06U M=1 $name=/N18/N00
M87 WEIN NET307 WELOUT VSSE NCH W=0.5U L=0.06U M=1 $name=/wpgn/N00
M88 Q_ NET295 NET275 VSSE NCH W=2.17U L=0.06U M=1 $name=/tqbpd/N00
M89 NET0561 NET307 NET0351 VSSE NCH W=0.2U L=0.06U M=1 $name=/tpgn2/N00
M9 NET207 IOGTPD HNET123 VSSE NCH W=0.84U L=0.06U M=1 $name=/tiogdlprech/N00
M90 NET209 NET207 VSSE VSSE NCH W=1.5U L=0.06U M=1 $name=/tnpreb/N00
M91 GDLPRE NET72 NET209 VSSE NCH W=1.5U L=0.06U M=1 $name=/tnprea/N00
M92 NET127 NET92 YSN VSSE NCH W=0.2U L=0.06U M=1 $name=/tnpg2/N00
M93 NET127 NET94 YSNI VSSE NCH W=0.2U L=0.06U M=1 $name=/tnpg1/N00
M94 DIN NET307 DLOUT VSSE NCH W=0.5U L=0.06U M=1 $name=/tndpass/N00
M95 IODW_ WE NET136 VSSE NCH W=1.5U L=0.06U M=1 $name=/tgdlppgn/N00
M96 NET248 NET138 VSSE VSSE NCH W=0.4U L=0.06U M=1 $name=/tgdlpdkp/N00
M97 IODW_ WE NET248 VSSE NCH W=1.5U L=0.06U M=1 $name=/tgdlnpgn/N00
M98 VSSE NET248 IODL VSSE NCH W=3U L=0.06U M=1 $name=/tgdldrvn/N00
M99 NET114 NET94 WEI VSSE NCH W=1U L=0.06U M=1 $name=/N9/N00
.ENDS sram512IO8_1B
****
.SUBCKT sram512FLIO8_1B CE_WE CREN CRENA CRENB CRENI FIOGTP GDL GDLA GDLA_
+  GDLB GDLB_ GDLI GDLI_ GDL_ IODL IODL_ IOGTP IRET IRETN TIEHIGH TIELOW WE
+  WEA WEB WEI YI YP1_0 YP1_1 YP1_2 YP1_3 YSN YSNA YSNB YSNI VSSE VDDPE VDDCE
** sram512FLIO8_1B: 90 flat devices **
M0 HNET85 YILOUT VSSE VSSE NCH W=0.15U L=0.06U M=1 $name=/I2/NI00
M1 NET244 IOGTPD HNET85 VSSE NCH W=0.15U L=0.06U M=1 $name=/I2/NE00
M10 VDDPE NET364 IOGTPD VDDCE PCH W=0.21U L=0.06U M=1 $name=/tgtpnd2/P10
M11 VDDPE NET367 IOGTPD VDDCE PCH W=0.21U L=0.06U M=1 $name=/tgtpnd2/P00
M12 HNET96 IOGTP VSSE VSSE NCH W=0.15U L=0.06U M=1 $name=/tfiogtpnd2/N01
M13 NET254 NET383 HNET96 VSSE NCH W=0.15U L=0.06U M=1 $name=/tfiogtpnd2/N00
M14 VDDPE IOGTP NET254 VDDCE PCH W=0.2U L=0.06U M=1 $name=/tfiogtpnd2/P10
M15 VDDPE NET383 NET254 VDDCE PCH W=0.2U L=0.06U M=1 $name=/tfiogtpnd2/P00
M16 HNET100 NET269 VSSE VSSE NCH W=1U L=0.06U M=1 $name=/gweio/N01
M17 NET257 NET379 HNET100 VSSE NCH W=1U L=0.06U M=1 $name=/gweio/N00
M18 VDDPE NET269 NET257 VDDCE PCH W=0.8U L=0.06U M=1 $name=/gweio/P10
M19 VDDPE NET379 NET257 VDDCE PCH W=0.8U L=0.06U M=1 $name=/gweio/P00
M2 HNET79 NET369 NET244 VDDCE PCH W=0.15U L=0.06U M=1 $name=/I2/PE00
M20 HNET104 NET265 VSSE VSSE NCH W=1U L=0.06U M=1 $name=/gpreg/N01
M21 NET260 YSEL HNET104 VSSE NCH W=1U L=0.06U M=1 $name=/gpreg/N00
M22 VDDPE NET265 NET260 VDDCE PCH W=1U L=0.06U M=1 $name=/gpreg/P10
M23 VDDPE YSEL NET260 VDDCE PCH W=1U L=0.06U M=1 $name=/gpreg/P00